16
H8ClO6Pa optimized with ADF in AMS.
Pa       -0.16351386025800      -0.30480796781774       0.40251945395298
O         1.76489791117681       1.19062551206553       1.10489628271283
O        -0.43797470610069       0.71683582208053      -1.39072911996453
Cl       -1.14594786963423       1.88415898754820       1.81965303453942
H        -1.02384824966293       1.41199527086794      -1.70937133824341
O        -1.19643714444896      -2.36732202328211      -0.69557257286519
H        -1.27145723279179      -2.42369535771565      -1.65449571796212
H        -0.85052485283256      -3.21976114208119      -0.40877503661377
H         1.64714296421193       1.76325662233997       1.87070862773100
O        -0.04025461805234      -1.34663633167021       1.92591821294500
O         1.64649067357507      -1.18573756825874      -0.41611350164149
H         2.00064561195066      -0.92938421472750      -1.27245410543486
H         2.62321224053191       0.76217515986187       1.19244954033275
O        -2.73974995382031      -0.43301211963215       0.52419664843906
H        -3.15783147400901      -1.30045601506201       0.54841280880056
H        -3.14107589518459       0.09648027138154       1.22225864695950
