12

Pa       0.00000000       0.00000000       0.00000000
Cl      -0.02645216       2.46609139      -1.10275293
Cl      -0.21317999      -2.20833700       1.56580700
Cl       2.48200252       0.44027821       0.80903123
Cl      -2.23582652      -0.71984624      -1.20949428
O       0.85494227       0.00496605      -2.42564903
O      -0.80003411       0.82987933       1.41600962
H       0.64550517      -0.70415438      -3.04411841
H       0.64663912       0.84142668      -2.86035547
H       1.21635964      -2.77090090      -0.31799077
H       2.06291715      -2.02165853      -1.38280127
O       1.18002479      -2.08813324      -1.00099301
