15

Pa       0.05763320       0.04558841       0.01820384
O       1.91516883       1.51491702       0.60491911
O      -0.32176445       1.11918478      -1.89917674
Cl      -0.90084281       2.15345997       1.46426789
H       0.13825983       1.42782907      -2.68827872
O      -0.83577783      -1.95658050      -1.05265395
H      -0.91382011      -2.04069962      -2.00936176
H      -0.58942313      -2.82750948      -0.72206569
H       1.81429500       2.09766446       1.36595949
O       0.25360506      -0.99250090       1.51248146
Cl       2.33273431      -0.96708290      -1.10041661
H      -2.79113902       0.33674670       0.89485583
H       2.81129504       1.16091803       0.61885047
O      -2.36771470      -0.16148348       0.18675304
H      -2.77300503      -1.03539691       0.16859548
