15

Pa       0.00000000       0.00000000       0.00000000
O       1.91516883       1.51491702       0.60491911
O      -0.34798069       0.98469458      -1.75860716
Cl      -0.96120518       2.11387353       1.45018159
H       0.11204359       1.29333887      -2.54770914
O      -0.91946213      -2.06055046      -1.10208309
H      -0.99750441      -2.14466958      -2.05879090
H      -0.67310743      -2.93147944      -0.77149483
H       1.81429500       2.09766446       1.36595949
O       0.19570971      -1.03670066       1.49227872
Cl       2.26377480      -1.00762985      -1.11305153
H      -2.95089312       0.28243938       0.88374887
H       2.81129504       1.16091803       0.61885047
O      -2.52746880      -0.21579080       0.17564608
H      -2.93275913      -1.08970423       0.15748852
