10

Pa       0.00000000       0.00000000       0.00000000
Cl      -0.89765265       2.45637167      -0.77861877
Cl       1.66303782      -1.67669661       1.41305814
Cl       1.40865039       1.70662626       1.57963969
Cl      -1.75754935      -0.53193432      -2.08533247
Cl       1.88310698       0.12782756      -1.82297950
O      -1.33479085      -0.15269215       1.23835346
O      -0.36978253      -2.48573653      -0.49251398
H      -0.73259749      -2.67718420      -1.36547949
H       0.36090811      -3.08707262      -0.31158458
