14

Pa       0.00000000       0.00000000       0.00000000
O      -0.21551750       1.73601057      -0.51520731
Cl      -0.29211994      -1.97217872       1.77281532
Cl       2.41953516       0.47110779       0.93163293
Cl      -2.27514283      -0.81875420      -1.04691001
O       0.79313476      -0.02192687      -2.36068559
O      -1.07028357       0.93297805       1.97408012
H       0.77899345      -0.77398303      -2.96285507
H       0.65100898       0.76924381      -2.89178038
H      -1.33072842       1.85322647       2.08817379
H      -1.28718225       0.44793946       2.77748341
O       1.15709009      -2.13615588      -0.84076555
H       1.15069107      -2.85283418      -0.19470642
H       2.04123459      -2.12337746      -1.22573489
