8

Pa       0.00000000       0.00000000       0.00000000
Cl       1.61467465       2.09311518      -0.86522923
Cl      -0.36866834      -1.85580250       2.04631607
Cl       1.88906101       0.50695369       1.98389638
Cl      -2.02958588      -1.74569688      -0.76526543
Cl      -0.81365255       0.70163099      -2.56458814
O      -1.19632415       1.15460821       0.76296186
Cl       1.72877968      -1.67823057      -1.08604717
